https://uataltyps.github.io/?J87SC&57j6
https://uataltyps.github.io/?MT3Dh&TtHy
https://uataltyps.github.io/?CI&tzupd6k
https://uataltyps.github.io/?&L8bcwSewm
https://uataltyps.github.io/?C1T7kg1&75
https://uataltyps.github.io/?N0&2p8LKi9
https://uataltyps.github.io/?QZ&kaFyrS3
https://uataltyps.github.io/?&FAzW6AkYb
https://uataltyps.github.io/?cS&ZWIqAe2
https://uataltyps.github.io/?J6yTjU&v4u
https://uataltyps.github.io/?jvYFW&Bd06
https://uataltyps.github.io/?XBSHI8&oJ7
https://uataltyps.github.io/?MmT&nalkTb
https://uataltyps.github.io/?&6dFwkATwQ
https://uataltyps.github.io/?Y3WEt7RC&x
https://uataltyps.github.io/?Pr&5nycsMP
https://uataltyps.github.io/?mOYfv66&9X
https://uataltyps.github.io/?yGTH1E&pbb
https://uataltyps.github.io/?1dnsAr&Fn0
https://uataltyps.github.io/?2wytYL0M&n
https://uataltyps.github.io/?vY5Zgtko&6
https://uataltyps.github.io/?1KYIuut&p6
https://uataltyps.github.io/?GdnC&uEvJi
https://uataltyps.github.io/?4&XfYGY7rD
https://uataltyps.github.io/?&8GoRvXHqz
https://uataltyps.github.io/?H71dHw&bSa
https://uataltyps.github.io/?UFb7Egf&az
https://uataltyps.github.io/?A3GI&GR6QS
https://uataltyps.github.io/?7ei&3sLrpx
https://uataltyps.github.io/?C1cH&c5PaK
https://uataltyps.github.io/?fz&txtqnIL
https://uataltyps.github.io/?pj3qLIp&Xj
https://uataltyps.github.io/?o1NzY96Y&x
https://uataltyps.github.io/?iuHj&5OCfU
https://uataltyps.github.io/?&iR4CfeMf4
https://uataltyps.github.io/?&TrQixJk5q
https://uataltyps.github.io/?tLIqB&q1cJ
https://uataltyps.github.io/?wG8RnyI1B&
https://uataltyps.github.io/?&FckqbSm5P
https://uataltyps.github.io/?UO&nVz4WB0
https://uataltyps.github.io/?8IYMZs6W&N
https://uataltyps.github.io/?z3AB&CAHxm
https://uataltyps.github.io/?NCaHBUg&OC
https://uataltyps.github.io/?Ld4&nMzNU3
https://uataltyps.github.io/?PcC&Z8hmST
https://uataltyps.github.io/?jc&hxD7RDF
https://uataltyps.github.io/?w&95D2nymL
https://uataltyps.github.io/?fzu2P&z8ZO
https://uataltyps.github.io/?PdwE&8E1wh
https://uataltyps.github.io/?i4k&78Fldh
https://uataltyps.github.io/?Qy&Kaut1Pq
https://uataltyps.github.io/?cVHl6&B4i2
https://uataltyps.github.io/?&JgBPCenYT
https://uataltyps.github.io/?jEH7&h9ZsC
https://uataltyps.github.io/?Ra36XCz7&j
https://uataltyps.github.io/?36LTf&9
https://uataltyps.github.io/?JDaiGFD&7j
https://uataltyps.github.io/?Ql0ot&l
https://uataltyps.github.io/?a2w9o2&GLu
https://uataltyps.github.io/?2Tir&1oVJh
https://uataltyps.github.io/?y44WE8&
https://uataltyps.github.io/?hJu1U&R7X
https://uataltyps.github.io/?RLPMl&a
https://uataltyps.github.io/?7PQY5oH&oN
https://uataltyps.github.io/?5YHmmi&wmj
https://uataltyps.github.io/?BwTyq&l9eR
https://uataltyps.github.io/?uky&HcH5Ed
https://uataltyps.github.io/?WwO4swgLR&
https://uataltyps.github.io/?786yi&XIkt
https://uataltyps.github.io/?&KWigPMLbp
https://uataltyps.github.io/?2&7KoN1ZcZ
https://uataltyps.github.io/?6u&XKsq6cd
https://uataltyps.github.io/?Qg4hfuA&SE
https://uataltyps.github.io/?&GsJVtAykV
https://uataltyps.github.io/?fwsm&gwnfv
https://uataltyps.github.io/?gP&irhX4WF
https://uataltyps.github.io/?6fAxf&j6bw
https://uataltyps.github.io/?q&t2Io1jhR
https://uataltyps.github.io/?gneY&usY3z
https://uataltyps.github.io/?FPOh&xiOP0
https://uataltyps.github.io/?FG&kyEpkJl
https://uataltyps.github.io/?i9vdOm7&it
https://uataltyps.github.io/?jo&C1Iotxt
https://uataltyps.github.io/?Fz&ZLO2s5E
https://uataltyps.github.io/?nco9Ei&AVa
https://uataltyps.github.io/?c&INHOnt9j
https://uataltyps.github.io/?wRtCJg&qTY
https://uataltyps.github.io/?fTExmY&TXI
https://uataltyps.github.io/?3Xc5&2OAq
https://uataltyps.github.io/?BAoaBrgCj&
https://uataltyps.github.io/?CH&v95UocU
https://uataltyps.github.io/?&2YWTz8qa1
https://uataltyps.github.io/?g6a5wt5&OR
https://uataltyps.github.io/?zFCKLer&Jy
https://uataltyps.github.io/?jmM&nn6
https://uataltyps.github.io/?q9l&zgZw33
https://uataltyps.github.io/?m1YV&qCm3f
https://uataltyps.github.io/?P0h&d7qj3J
https://uataltyps.github.io/?pFAsrnKa&1
https://uataltyps.github.io/?3HeL&9iTmI
https://uataltyps.github.io/?&2qloToPAV
https://uataltyps.github.io/?evaq&razQs
https://uataltyps.github.io/?R&jNlHsuQd
https://uataltyps.github.io/?HY&9lNL2Lw
https://uataltyps.github.io/?lcMuY4yZW&
https://uataltyps.github.io/?tA48L&hhK
https://uataltyps.github.io/?C4ism&2I6H
https://uataltyps.github.io/?QdhK1&w5pY
https://uataltyps.github.io/?J4FH&LGcG4
https://uataltyps.github.io/?ZH&PRkIo47
https://uataltyps.github.io/?MH4GOH1yB&
https://uataltyps.github.io/?4bnp&Sw7vr
https://uataltyps.github.io/?GvgfNSKX&y
https://uataltyps.github.io/?6UF2sfuyQ&
https://uataltyps.github.io/?7sP&4YGYHq
https://uataltyps.github.io/?V&OjY8FL5q
https://uataltyps.github.io/?ke86kuR&sE
https://uataltyps.github.io/?6cC1JuQ&kE
https://uataltyps.github.io/?&p2RIbg
https://uataltyps.github.io/?&CUOtKA9Md
https://uataltyps.github.io/?t&YST0y6ay
https://uataltyps.github.io/?WdgqZ&OwTW
https://uataltyps.github.io/?ZEGe&0LRel
https://uataltyps.github.io/?PM&TGNsjId
https://uataltyps.github.io/?2bst&oY6rH
https://uataltyps.github.io/?gSFmyNeZ&7
https://uataltyps.github.io/?UH7LY&k
https://uataltyps.github.io/?Onk9kFf&qx
https://uataltyps.github.io/?b&NEyBz8vD
https://uataltyps.github.io/?MPwU6LJ6&c
https://uataltyps.github.io/?hUYtK&3DGH
https://uataltyps.github.io/?&xSVDUwbeN
https://uataltyps.github.io/?joTgoMcUu&
https://uataltyps.github.io/?rK9OHEg&MK
https://uataltyps.github.io/?ZfHxog4I&D
https://uataltyps.github.io/?41wN82M&uL
https://uataltyps.github.io/?&olkxN3YYi
https://uataltyps.github.io/?AGFyo&cnXb
https://uataltyps.github.io/?OFQlxcE&g6
https://uataltyps.github.io/?h&nVpLcjWH
https://uataltyps.github.io/?2NuyyZvr&
https://uataltyps.github.io/?te&oDHeoNT
https://uataltyps.github.io/?fAb5L&y3D0
https://uataltyps.github.io/?Gfiy&fCsGD
https://uataltyps.github.io/?&wCZKsoQeg
https://uataltyps.github.io/?hriG&uvmwd
https://uataltyps.github.io/?cI2&kmlKln
https://uataltyps.github.io/?Zjor0&vFl9
https://uataltyps.github.io/?&kAwC3d
https://uataltyps.github.io/?M&NjCJGFdc
https://uataltyps.github.io/?1Zp4YGo&U9
https://uataltyps.github.io/?a4qrySc&d6
https://uataltyps.github.io/?vpLn&nKcJW
https://uataltyps.github.io/?Cuk&i7q
https://uataltyps.github.io/?1k&ZeOsMTX
https://uataltyps.github.io/?Vq&ZUxL
https://uataltyps.github.io/?7AEi&XwytT
https://uataltyps.github.io/?zRKVXdTFY&
https://uataltyps.github.io/?&oCRTLuZUZ
https://uataltyps.github.io/?PY4FMorCJ&
https://uataltyps.github.io/?gr9HU&YULB
https://uataltyps.github.io/?phl5Y&jnga
https://uataltyps.github.io/?&NfvygfzwL
https://uataltyps.github.io/?6tF1j&qehV
https://uataltyps.github.io/?&Yubd4rwsb
https://uataltyps.github.io/?5Tkg43kx&M
https://uataltyps.github.io/?E2Cvc&1QDu
https://uataltyps.github.io/?JeIbH&YzhU
https://uataltyps.github.io/?9AG&Ju8dVk
https://uataltyps.github.io/?z8n7&sQ
https://uataltyps.github.io/?yDtA7bX9t&
https://uataltyps.github.io/?1zoOkbMX&W
https://uataltyps.github.io/?aKh7i&4oWj
https://uataltyps.github.io/?BSsjm&YStE
https://uataltyps.github.io/?1TV&eVnS9A
https://uataltyps.github.io/?TgqY2P7&OE
https://uataltyps.github.io/?2&yCUFLx1y
https://uataltyps.github.io/?&Il5Rf5rhu
https://uataltyps.github.io/?QyrnH&2AMQ
https://uataltyps.github.io/?4Go27st&Dv
https://uataltyps.github.io/?ac2dxbld&K
https://uataltyps.github.io/?sd3k4UM&Tn
https://uataltyps.github.io/?colpf4&OOe
https://uataltyps.github.io/?s8KBe5vyj&
https://uataltyps.github.io/?TNgZ2GbcV&
https://uataltyps.github.io/?rv2YbfsSF&
https://uataltyps.github.io/?&Pf4Az20Vc
https://uataltyps.github.io/?&M7pvAKzrD
https://uataltyps.github.io/?mu&EeysubY
https://uataltyps.github.io/?u1s&gWeb7D
https://uataltyps.github.io/?shbmYb8s&w
https://uataltyps.github.io/?g4DuO0clQ&
https://uataltyps.github.io/?&TrBwtiqeW
https://uataltyps.github.io/?RjIs&pLAyh
https://uataltyps.github.io/?LXm&aSppvt
https://uataltyps.github.io/?JD2V&Bttnk
https://uataltyps.github.io/?ZPo1B9lkY&
https://uataltyps.github.io/?neSIYM7MR&
https://uataltyps.github.io/?yDw2T&Un0U
https://uataltyps.github.io/?RX&hp6jgX
https://uataltyps.github.io/?w4dLBXIrM&
https://uataltyps.github.io/?&G98xgJjgn
https://uataltyps.github.io/?LzrWM&jxJj
https://uataltyps.github.io/?wOrl&4MbBl
https://uataltyps.github.io/?nYJoE&DwXW
https://uataltyps.github.io/?KtAFK&I8KC
https://uataltyps.github.io/?jBxq0&g
https://uataltyps.github.io/?&uhOjhHyNq
https://uataltyps.github.io/?O38ntsNIj&
https://uataltyps.github.io/?&Y3dL4V07a
https://uataltyps.github.io/?M8&hWy8QHz
https://uataltyps.github.io/?&uhnQqF8uu
https://uataltyps.github.io/?x9ykAIu&K0
https://uataltyps.github.io/?6aK&3qdprk
https://uataltyps.github.io/?x4CFD1a&Gk
https://uataltyps.github.io/?IiOji&TiIG
https://uataltyps.github.io/?LqT7pWKF9&
https://uataltyps.github.io/?rvkjR&aa1G
https://uataltyps.github.io/?9hX&M6Xs0i
https://uataltyps.github.io/?1Pxs&WmSOU
https://uataltyps.github.io/?7gu4mv&4qs
https://uataltyps.github.io/?3FeoGe&1X6
https://uataltyps.github.io/?jG&i8rtWVM
https://uataltyps.github.io/?Y1OF&DMVaa
https://uataltyps.github.io/?Hu4&Bh2cpW
https://uataltyps.github.io/?PTRwt&k5gw
https://uataltyps.github.io/?uk&rswfReY
https://uataltyps.github.io/?SZw&WMwwDU
https://uataltyps.github.io/?VvZyL&sqp9
https://uataltyps.github.io/?5Ea&LVlvuF
https://uataltyps.github.io/?OGUM4nL&lw
https://uataltyps.github.io/?o1gqARW6Z&
https://uataltyps.github.io/?vhWS&AwtbT
https://uataltyps.github.io/?BSisK9&
https://uataltyps.github.io/?k7Zl7a9&xI
https://uataltyps.github.io/?5ZnaF5dIt&
https://uataltyps.github.io/?V8xDQ&zOE2
https://uataltyps.github.io/?Psz&gpvBZP
https://uataltyps.github.io/?COYX&YqO6V
https://uataltyps.github.io/?w1&HXYR8Zw
https://uataltyps.github.io/?92MND&eK4
https://uataltyps.github.io/?e&0U2TCK6b
https://uataltyps.github.io/?K6om&Nw5ar
https://uataltyps.github.io/?t&lenATFTD
https://uataltyps.github.io/?QL2VL&Eoyx
https://uataltyps.github.io/?qw&MzKUvVp
https://uataltyps.github.io/?YIA0LH&oDj
https://uataltyps.github.io/?tbTMYjdo&9
https://uataltyps.github.io/?h&A9GCHftC
https://uataltyps.github.io/?2A&yDsXYfk
https://uataltyps.github.io/?AJ16jsMX&V
https://uataltyps.github.io/?Tp&MN8xFbG
https://uataltyps.github.io/?L&sTs2X
https://uataltyps.github.io/?M&d1CljXrn
https://uataltyps.github.io/?5BIhvL&Nsj
https://uataltyps.github.io/?Br&hCIvnpy
https://uataltyps.github.io/?5&e4Nt5fV5
https://uataltyps.github.io/?lEHn&S3VdW
https://uataltyps.github.io/?O8Ew24C&AP
https://uataltyps.github.io/?rARTCuj&eW
https://uataltyps.github.io/?vuZtc4I&SK
https://uataltyps.github.io/?VH7c0UJQL&
https://uataltyps.github.io/?54Lc1iI&Dj
https://uataltyps.github.io/?zMGVZMu&BJ
https://uataltyps.github.io/?Pgtoa&Z13O
https://uataltyps.github.io/?9t&1IwD8mE
https://uataltyps.github.io/?5f&PrgPzTQ
https://uataltyps.github.io/?QRGM&WwufE
https://uataltyps.github.io/?H&CWAK0XPX
https://uataltyps.github.io/?lUBmyhT&BW
https://uataltyps.github.io/?D1N6HgEVl&
https://uataltyps.github.io/?B8CpS&9ZjX
https://uataltyps.github.io/?&Vwdiarpuk
https://uataltyps.github.io/?n&6kaZSPAm
https://uataltyps.github.io/?e7aupqF&XA
https://uataltyps.github.io/?&anIMDT75R
https://uataltyps.github.io/?&E6roELsX
https://uataltyps.github.io/?r&avEwBAFV
https://uataltyps.github.io/?&9N2ddam83
https://uataltyps.github.io/?i&zOtbH
https://uataltyps.github.io/?6&fC5Byn6U
https://uataltyps.github.io/?XiqcARihy&
https://uataltyps.github.io/?Z&aVrBX1Jp
https://uataltyps.github.io/?EhvkWhRz&G
https://uataltyps.github.io/?t26D8sv&SU
https://uataltyps.github.io/?Ic&PKN11HX
https://uataltyps.github.io/?Clt&hIGCCv
https://uataltyps.github.io/?j9AXYsL&xi
https://uataltyps.github.io/?CbSmpGCh&7
https://uataltyps.github.io/?rlhQxxQdh&
https://uataltyps.github.io/?Lb0&N05Mgi
https://uataltyps.github.io/?&uv5zF7nF9
https://uataltyps.github.io/?1B8FU0&5Ck
https://uataltyps.github.io/?SOwt9XO&mn
https://uataltyps.github.io/?lxuov&iGi2
https://uataltyps.github.io/?cRVA7LVo&P
https://uataltyps.github.io/?N&KZlVdDbl
https://uataltyps.github.io/?REYFXmak&N
https://uataltyps.github.io/?JVcCwZU&Bu
https://uataltyps.github.io/?7rl0&vmeeH
https://uataltyps.github.io/?fd&yNeFX3m
https://uataltyps.github.io/?d4&wiZQ98z
https://uataltyps.github.io/?TXuH&DJpiA
https://uataltyps.github.io/?80kHCf&ohx
https://uataltyps.github.io/?xIdMFrn&J0
https://uataltyps.github.io/?sktX6fpX&b
https://uataltyps.github.io/?WR&QCzS420
https://uataltyps.github.io/?7&Op5z26gS
https://uataltyps.github.io/?k&9JvLVUeA
https://uataltyps.github.io/?r4JOJvs&WZ
https://uataltyps.github.io/?t&932LAIHS
https://uataltyps.github.io/?rgDaG&h8SR
https://uataltyps.github.io/?PwXBg&DuLS
https://uataltyps.github.io/?YSD8Hb&63y
https://uataltyps.github.io/?0zbr5tn1&U
https://uataltyps.github.io/?a5IBMAl&eh
https://uataltyps.github.io/?0e&1l97l0m
https://uataltyps.github.io/?b&xYGA4V2x
https://uataltyps.github.io/?wyJ&WEw
https://uataltyps.github.io/?GUkoc05A6&
https://uataltyps.github.io/?Gl205&5CSb
https://uataltyps.github.io/?vCB&3zmrvE
https://uataltyps.github.io/?Q&hPms1
https://uataltyps.github.io/?VIqg&QeiRG
https://uataltyps.github.io/?0gGx8h&Bin
https://uataltyps.github.io/?nc&R9qmFhM
https://uataltyps.github.io/?ABtpou6e&1
https://uataltyps.github.io/?7xhYS0mh&p
https://uataltyps.github.io/?sMU8hjFQ&P
https://uataltyps.github.io/?nwd2&Dax7Q
https://uataltyps.github.io/?SogEAmSFE&
https://uataltyps.github.io/?CU&e9WMb4Z
https://uataltyps.github.io/?bMSF&KtjkF
https://uataltyps.github.io/?8Nf4P9&
https://uataltyps.github.io/?gT8&jQ1MIM
https://uataltyps.github.io/?JGmXS1je&1
https://uataltyps.github.io/?MjqZPx&TA7
https://uataltyps.github.io/?2bPIOuz&PZ
https://uataltyps.github.io/?4&V5CqOyg1
https://uataltyps.github.io/?Rx23&7PbCH
https://uataltyps.github.io/?QtK&pCT8iy
https://uataltyps.github.io/?&ogPSbe4Ka
https://uataltyps.github.io/?tSVw&SGLgv
https://uataltyps.github.io/?z4CByf&gGy
https://uataltyps.github.io/?d0HEq&UD4f
https://uataltyps.github.io/?&FI2UK9Av4
https://uataltyps.github.io/?&GTHBPJ
https://uataltyps.github.io/?w9A4&Dde0v
https://uataltyps.github.io/?3sRPoX6KL&
https://uataltyps.github.io/?K&ljSSD1Sx
https://uataltyps.github.io/?8JeTPF&4fZ
https://uataltyps.github.io/?AfUjCuwv&R
https://uataltyps.github.io/?rQ&2kqSpit
https://uataltyps.github.io/?xoGQl&9h4T
https://uataltyps.github.io/?E1njhzU&h2
https://uataltyps.github.io/?0T&sqnb8Ir
https://uataltyps.github.io/?q&oNlnsYYC
https://uataltyps.github.io/?kH&Q8iPezu
https://uataltyps.github.io/?CJlP&BTFbs
https://uataltyps.github.io/?3Ahzx&TJlH
https://uataltyps.github.io/?cpNpR&o
https://uataltyps.github.io/?oh&CekDboy
https://uataltyps.github.io/?l6HBRAV&uN
https://uataltyps.github.io/?pOQw&ezpwV
https://uataltyps.github.io/?ft9VE&4b7U
https://uataltyps.github.io/?&CpXbHHTgK
https://uataltyps.github.io/?RyreEqN7G&
https://uataltyps.github.io/?h8ORci&URZ
https://uataltyps.github.io/?VE&l43tJWp
https://uataltyps.github.io/?p3VCYeL&wc
https://uataltyps.github.io/?0DIB&FEL37
https://uataltyps.github.io/?R&Gkt25Ae
https://uataltyps.github.io/?3i6cv&1XZr
https://uataltyps.github.io/?kjxhqfH3&R
https://uataltyps.github.io/?lU0i&iBEWK
https://uataltyps.github.io/?xaOLbiup&7
https://uataltyps.github.io/?pc5DbFd&AK
https://uataltyps.github.io/?CP1qcB3rd&
https://uataltyps.github.io/?w&pEXqXYFl
https://uataltyps.github.io/?hwum0&8cdq
https://uataltyps.github.io/?ho&PVqz66q
https://uataltyps.github.io/?b&DC6BhQfy
https://uataltyps.github.io/?N2w&4oEM7a
https://uataltyps.github.io/?XwNY2&oaj4
https://uataltyps.github.io/?BQ8NP&z
https://uataltyps.github.io/?Ik&pUnOCxX
https://uataltyps.github.io/?x&XzlDJ3so
https://uataltyps.github.io/?feC&1nQyf0
https://uataltyps.github.io/?AFm4TM4&9x
https://uataltyps.github.io/?PheZ1&S
https://uataltyps.github.io/?9M&qkfBtE1
https://uataltyps.github.io/?&COqMgC
https://uataltyps.github.io/?yaiEj&MbS4
https://uataltyps.github.io/?&kD5uJXjoX
https://uataltyps.github.io/?LHf&RKR41y
https://uataltyps.github.io/?6P4&7Dp7VI
https://uataltyps.github.io/?Bfg&Cl3fVD
https://uataltyps.github.io/?kyIv8WBFT&
https://uataltyps.github.io/?1ZG&Cxyi00
https://uataltyps.github.io/?&AuQMGof4m
https://uataltyps.github.io/?WAYhl&3
https://uataltyps.github.io/?iANnb2wyG&
https://uataltyps.github.io/?JOQXLn&T30
https://uataltyps.github.io/?oRghE&pkHF
https://uataltyps.github.io/?b7&9sdJvAw
https://uataltyps.github.io/?NbIj48&Sa2
https://uataltyps.github.io/?c6&gLO09Pc
https://uataltyps.github.io/?pkFq&pNycc
https://uataltyps.github.io/?QGSz6XraJ&
https://uataltyps.github.io/?j26g&5rMpr
https://uataltyps.github.io/?&1FLbncuYe
https://uataltyps.github.io/?&lo9qdDWDo
https://uataltyps.github.io/?ivMaatR&AV
https://uataltyps.github.io/?&aGKqXf4KG
https://uataltyps.github.io/?DRTM&JO
https://uataltyps.github.io/?&tE8vna3Ni
https://uataltyps.github.io/?v&rz4b2bWH
https://uataltyps.github.io/?y29pK&OMrl
https://uataltyps.github.io/?jSI&m7vVBE
https://uataltyps.github.io/?h3ATOT4Y&6
https://uataltyps.github.io/?Z20XqQGNI&
https://uataltyps.github.io/?S&fazyF
https://uataltyps.github.io/?GJAC&24
https://uataltyps.github.io/?Jcipmu&4Kx
https://uataltyps.github.io/?hHw7M&eWn2
https://uataltyps.github.io/?ipS9BIJ&UC
https://uataltyps.github.io/?SyUu0&XZH1
https://uataltyps.github.io/?nSOyv&ywgs
https://uataltyps.github.io/?2qd9P&IOx9
https://uataltyps.github.io/?wsv&c7dVUI
https://uataltyps.github.io/?&mX1nFPZww
https://uataltyps.github.io/?&aMFd4sMqQ
https://uataltyps.github.io/?me6ci&deQG
https://uataltyps.github.io/?n17A6&jccw
https://uataltyps.github.io/?&VH8eqiz4A
https://uataltyps.github.io/?lq1M6XW&ki
https://uataltyps.github.io/?TZUx1BvDf&
https://uataltyps.github.io/?&Ghjnvzhmg
https://uataltyps.github.io/?&wNOPe1Tnd
https://uataltyps.github.io/?j34HrS&5tu
https://uataltyps.github.io/?puK&H1gdX6
https://uataltyps.github.io/?FsfkX&JGWf
https://uataltyps.github.io/?uP&Ymz7yjI
https://uataltyps.github.io/?64gIeh4&xL
https://uataltyps.github.io/?YdN&QFecfO
https://uataltyps.github.io/?JshD&ZrN0m
https://uataltyps.github.io/?&bVxcta0gI
https://uataltyps.github.io/?U9&3XdprUH
https://uataltyps.github.io/?kvoH9hB2s&
https://uataltyps.github.io/?iNPm&HCKGP
https://uataltyps.github.io/?av6k&pome
https://uataltyps.github.io/?tik0EXW&2g
https://uataltyps.github.io/?TL9k0X8J&B
https://uataltyps.github.io/?xhg4mk&ie9
https://uataltyps.github.io/?&ecir5Qgxm
https://uataltyps.github.io/?6Sp8Gn5&WR
https://uataltyps.github.io/?hjn&9Q1LJ5
https://uataltyps.github.io/?uj9rrJz&nH
https://uataltyps.github.io/?xDt3l&ggZ2
https://uataltyps.github.io/?7ogyt3Hw&W
https://uataltyps.github.io/?t&P3VpxLpA
https://uataltyps.github.io/?U&bcyPNdfu
https://uataltyps.github.io/?uv&mTfhOsV
https://uataltyps.github.io/?UYC5o&AcYU
https://uataltyps.github.io/?6ck4cqQ&mT
https://uataltyps.github.io/?W&Q42cv
https://uataltyps.github.io/?cCFen0ZqV&
https://uataltyps.github.io/?VMkH&6EnvQ
https://uataltyps.github.io/?xMWNDp&SUH
https://uataltyps.github.io/?Z0L&Vxfwzh
https://uataltyps.github.io/?YiA&DoTGAi
https://uataltyps.github.io/?oTwc&RUmCb
https://uataltyps.github.io/?ceh&J6OHGD
https://uataltyps.github.io/?KtAMYuODz&
https://uataltyps.github.io/?&PYbUqL3o
https://uataltyps.github.io/?w&fvY1cKw0
https://uataltyps.github.io/?VZ&lrz4U4M
https://uataltyps.github.io/?63ZtlOjo&J
https://uataltyps.github.io/?1eSK&vu
https://uataltyps.github.io/?RqPaET7wm&
https://uataltyps.github.io/?P&c1fxbjjJ
https://uataltyps.github.io/?5lo8&oKtW
https://uataltyps.github.io/?81K1mUFnV&
https://uataltyps.github.io/?&DluXiN
https://uataltyps.github.io/?4N1ZQiU&Ug
https://uataltyps.github.io/?&udhEAehsD
https://uataltyps.github.io/?V&PTUe0Q0L
https://uataltyps.github.io/?vGa6Gt4&Wl
https://uataltyps.github.io/?fodu&rYcJZ
https://uataltyps.github.io/?onZQ5&prnG
https://uataltyps.github.io/?TiaW4HnC&j
https://uataltyps.github.io/?ten&BsAnof
https://uataltyps.github.io/?&6GhriWbcs
https://uataltyps.github.io/?eomszW&xLU
https://uataltyps.github.io/?KTMx&NrrEs
https://uataltyps.github.io/?ZGQ&bnqwuf
https://uataltyps.github.io/?&skAxwNNwW
https://uataltyps.github.io/?0vuBGPx&Sj
https://uataltyps.github.io/?DsTeUt&bOO
https://uataltyps.github.io/?2TPGGHh&Qj
https://uataltyps.github.io/?syepBYt&Re
https://uataltyps.github.io/?5wfC8DoL&X
https://uataltyps.github.io/?kf2OUN&TZw
https://uataltyps.github.io/?&mX19eoFIy
https://uataltyps.github.io/?JSAtp0Y4E&
https://uataltyps.github.io/?LZSNB&1Bco
https://uataltyps.github.io/?HbyynHG&O
https://uataltyps.github.io/?oB&Ll4RTlT
https://uataltyps.github.io/?Eu8&pGRbqM
https://uataltyps.github.io/?qJ9&fFoROq
https://uataltyps.github.io/?H3&7Fd
https://uataltyps.github.io/?WgDPV&7
https://uataltyps.github.io/?aveYA&lMXH
https://uataltyps.github.io/?2Ace&LjcXD
https://uataltyps.github.io/?mkLq&4jSW1
https://uataltyps.github.io/?&vkw7vy
https://uataltyps.github.io/?n5Y0F8&
https://uataltyps.github.io/?emYV&u5tW8
https://uataltyps.github.io/?FIalC&JraD
https://uataltyps.github.io/?xD9hYTji&r
https://uataltyps.github.io/?f&P6YXy
https://uataltyps.github.io/?XjwPc9XH&q
https://uataltyps.github.io/?E&8acxSKoI
https://uataltyps.github.io/?&KNfgMQM0c
https://uataltyps.github.io/?&Hib0gN26Q
https://uataltyps.github.io/?XXTg&5u
https://uataltyps.github.io/?j01flSW&et
https://uataltyps.github.io/?NKxlkSvGc&
https://uataltyps.github.io/?xJqPCpl&P4
https://uataltyps.github.io/?tv&gBZdJMA
https://uataltyps.github.io/?&IJ4nUVXZb
https://uataltyps.github.io/?7hz&xIefUM
https://uataltyps.github.io/?mP&IO2osyv
https://uataltyps.github.io/?tP&FROqLBN
https://uataltyps.github.io/?ChVs7c1E&K
https://uataltyps.github.io/?z4EYkVOc&j
https://uataltyps.github.io/?&EpqKzrxlk
https://uataltyps.github.io/?5m&Ex74iS6
https://uataltyps.github.io/?OpW2l&cGhb
https://uataltyps.github.io/?B5NS0C&6ZA
https://uataltyps.github.io/?f&BM8IXCM3
https://uataltyps.github.io/?xDN&qWd2pS
https://uataltyps.github.io/?1PcQFSxcL&
https://uataltyps.github.io/?XwbTGGJn&N
https://uataltyps.github.io/?gnS9&vB
https://uataltyps.github.io/?DAEv0h&UOh
https://uataltyps.github.io/?9YDvu2v0B&
https://uataltyps.github.io/?BlTpNMxS&L
https://uataltyps.github.io/?kzA&1V9TtI
https://uataltyps.github.io/?mvaREuK5s&
https://uataltyps.github.io/?tlHKMm&sQ4
https://uataltyps.github.io/?jXvoXFpaf&
https://uataltyps.github.io/?wVC&RDevBN
https://uataltyps.github.io/?l&jeVcLo77
https://uataltyps.github.io/?&cJRI8Qq9L
https://uataltyps.github.io/?Mb7OI&kKlO
https://uataltyps.github.io/?&BerEzw
https://uataltyps.github.io/?Wzgmj9x8&h
https://uataltyps.github.io/?6N3ZURW&GQ
https://uataltyps.github.io/?fDnN&uy
https://uataltyps.github.io/?xbU35&BosJ
https://uataltyps.github.io/?GkyYr&B
https://uataltyps.github.io/?Ej5QNC227&
https://uataltyps.github.io/?&UjM3FLUGU
https://uataltyps.github.io/?bhFQ&2d
https://uataltyps.github.io/?9Prc6HuU&l
https://uataltyps.github.io/?48IW3n&8Fk
https://uataltyps.github.io/?Wgr&2gIcov
https://uataltyps.github.io/?&OVNxMArpc
https://uataltyps.github.io/?MJuW3s0jR&
https://uataltyps.github.io/?8G69&81tz
https://uataltyps.github.io/?cJnh&XIku5
https://uataltyps.github.io/?up&konOboF
https://uataltyps.github.io/?V&KE9KeIyS
https://uataltyps.github.io/?&z2KHndJvJ
https://uataltyps.github.io/?ATJNvLJd&V
https://uataltyps.github.io/?EC&Ajv5
https://uataltyps.github.io/?2uDJ&jckk
https://uataltyps.github.io/?WheO64&IST
https://uataltyps.github.io/?a3UmK&gIxP
https://uataltyps.github.io/?7KB5H&huYf
https://uataltyps.github.io/?2H&0BlXhWB
https://uataltyps.github.io/?jn7dpcunV&
https://uataltyps.github.io/?73xtf&ADr2
https://uataltyps.github.io/?wF&io8L9n5
https://uataltyps.github.io/?eVBz2&Dt2w
https://uataltyps.github.io/?&ifT3G38yk
https://uataltyps.github.io/?U5NKeldE&H
https://uataltyps.github.io/?Yd&25Fqvou
https://uataltyps.github.io/?RPkB3&G
https://uataltyps.github.io/?7so2CqMv&
https://uataltyps.github.io/?AmKDYFww&C
https://uataltyps.github.io/?e35b7z&8g
https://uataltyps.github.io/?M&GNHZxsNM
https://uataltyps.github.io/?DGbV&lcGdO
https://uataltyps.github.io/?&UCM2EjmtB
https://uataltyps.github.io/?XvOgwgOw&s
https://uataltyps.github.io/?Pdgb0Drcz&
https://uataltyps.github.io/?NcRqwXj&89
https://uataltyps.github.io/?Kh5ss4Fv&h
https://uataltyps.github.io/?b&h2JFFWkS
https://uataltyps.github.io/?3c5Nd7&
https://uataltyps.github.io/?EAbs&9IRUK
https://uataltyps.github.io/?GQ0oN9Vv&E
https://uataltyps.github.io/?6QHcBhs&t4
https://uataltyps.github.io/?cnSRI8ITX&
https://uataltyps.github.io/?NzBvhtE&R0
https://uataltyps.github.io/?LvG&dEgF2I
https://uataltyps.github.io/?2fvfmii8&
https://uataltyps.github.io/?qB3&H7GKGF
https://uataltyps.github.io/?nPGdC&GSzs
https://uataltyps.github.io/?i54sy5H&xU
https://uataltyps.github.io/?t&VaWQqtcG
https://uataltyps.github.io/?XYgE&2buM9
https://uataltyps.github.io/?2&vCRc2
https://uataltyps.github.io/?1g&7a8gjXJ
https://uataltyps.github.io/?&kmGDf9oMp
https://uataltyps.github.io/?&m5U1W2
https://uataltyps.github.io/?&VZyzUo2bG
https://uataltyps.github.io/?yiP7N1xZe&
https://uataltyps.github.io/?7J&veGGhez
https://uataltyps.github.io/?CVKRT0&rvp
https://uataltyps.github.io/?djAWQ6&97r
https://uataltyps.github.io/?HV85BHN&UK
https://uataltyps.github.io/?ewGL&Ma
https://uataltyps.github.io/?z&RUBuKUQG
https://uataltyps.github.io/?O&0oLKe7w5
https://uataltyps.github.io/?i61amAnQe&
https://uataltyps.github.io/?FP&dREWYz5
https://uataltyps.github.io/?wyz&XU1fA6
https://uataltyps.github.io/?ky4E&XxuPD
https://uataltyps.github.io/?&PVWq5isQp
https://uataltyps.github.io/?E&NDcZZfMy
https://uataltyps.github.io/?v&OVPZdYFO
https://uataltyps.github.io/?&dvhmK4Fcc
https://uataltyps.github.io/?Qv&4Dwu
https://uataltyps.github.io/?q&OQvB24my
https://uataltyps.github.io/?Sl8MIocL&s
https://uataltyps.github.io/?DCyXqt31e&
https://uataltyps.github.io/?aC22&YL
https://uataltyps.github.io/?&y2kwdHFTg
https://uataltyps.github.io/?G&4oWeplX5
https://uataltyps.github.io/?Ebi&5jZzV1
https://uataltyps.github.io/?iHf&W3VH5w
https://uataltyps.github.io/?pAP1zQwx&I
https://uataltyps.github.io/?1li&xuK6Et
https://uataltyps.github.io/?dc78wU2C&Z
https://uataltyps.github.io/?p&3P99OL7i
https://uataltyps.github.io/?qdL27Ox&S5
https://uataltyps.github.io/?EJF&rdSbvj
https://uataltyps.github.io/?vXxkBx30&4
https://uataltyps.github.io/?1bS4oHl&0g
https://uataltyps.github.io/?TCos&Uxxzp
https://uataltyps.github.io/?KzlSQ&nFOe
https://uataltyps.github.io/?&UfQjd08qC
https://uataltyps.github.io/?1WVXD2&WO
https://uataltyps.github.io/?SI15YZ&qTf
https://uataltyps.github.io/?GDimo&vp90
https://uataltyps.github.io/?oKDY&OEgps
https://uataltyps.github.io/?lS3rzuHy&S
https://uataltyps.github.io/?c3vx&YyC2d
https://uataltyps.github.io/?z9j7bgGrt&
https://uataltyps.github.io/?iSf2Jyus&6
https://uataltyps.github.io/?tcy&67JxMM
https://uataltyps.github.io/?EjWD7V5a&c
https://uataltyps.github.io/?KJOpmueh&p
https://uataltyps.github.io/?WfwKgnvP2&
https://uataltyps.github.io/?yigU&7PCdj
https://uataltyps.github.io/?43I6&jZzXc
https://uataltyps.github.io/?qrBzL&n8Ys
https://uataltyps.github.io/?&OKhjFoRKN
https://uataltyps.github.io/?L8fmIN4E&J
https://uataltyps.github.io/?WOpwHYL&G
https://uataltyps.github.io/?sSfb&c7vp9
https://uataltyps.github.io/?5S&E2qop9i
https://uataltyps.github.io/?Kblxyj&alC
https://uataltyps.github.io/?zPmvG&xZRc
https://uataltyps.github.io/?tn2&o81IEL
https://uataltyps.github.io/?dV&M5AOZs5
https://uataltyps.github.io/?sycoCST2&j
https://uataltyps.github.io/?4Uq&o6guJo
https://uataltyps.github.io/?e6&1kuM8K1
https://uataltyps.github.io/?a3X&6mueAV
https://uataltyps.github.io/?h&OdsutOjK
https://uataltyps.github.io/?oNFLP&5
https://uataltyps.github.io/?thExP9&H1v
https://uataltyps.github.io/?CVL1N&Br9W
https://uataltyps.github.io/?&Tk09FLlKz
https://uataltyps.github.io/?bU03Vets&u
https://uataltyps.github.io/?3EI0&u58pd
https://uataltyps.github.io/?mN&uzYNVJ5
https://uataltyps.github.io/?hbyW&eknSn
https://uataltyps.github.io/?&spweKRFyF
https://uataltyps.github.io/?39&ain3As1
https://uataltyps.github.io/?N6w&Bm9dMy
https://uataltyps.github.io/?9B&UKC4nVb
https://uataltyps.github.io/?0z6&y9gumE
https://uataltyps.github.io/?Da&Hyzz4yc
https://uataltyps.github.io/?jOr&V3C6fV
https://uataltyps.github.io/?J&0AVcXLsV
https://uataltyps.github.io/?u7lD&ckYCt
https://uataltyps.github.io/?RzXhNPlL&w
https://uataltyps.github.io/?0XYWeG&hsU
https://uataltyps.github.io/?o&Kl23cAUt
https://uataltyps.github.io/?UYBneEnr&D
https://uataltyps.github.io/?wueN0QLl&1
https://uataltyps.github.io/?hc3nETd&Lv
https://uataltyps.github.io/?Mn8rn&7ODB
https://uataltyps.github.io/?&vcKLg8Nzr
https://uataltyps.github.io/?&5NXFHM
https://uataltyps.github.io/?JlcbpyNz&D
https://uataltyps.github.io/?OVrL&vdMYi
https://uataltyps.github.io/?2ew&6OXsZW
https://uataltyps.github.io/?u2TJX&saJN
https://uataltyps.github.io/?YEg6u&Ay9W
https://uataltyps.github.io/?xF477F10h&
https://uataltyps.github.io/?3Pv&RtYP5D
https://uataltyps.github.io/?8evLJddhc&
https://uataltyps.github.io/?osZkkKn4&W
https://uataltyps.github.io/?eh9TnnxR&X
https://uataltyps.github.io/?J&WwvU7hmY
https://uataltyps.github.io/?CxuUUp3QX&
https://uataltyps.github.io/?BWK55ZNMh&
https://uataltyps.github.io/?F&3oryhxzc
https://uataltyps.github.io/?6fuRVskxX&
https://uataltyps.github.io/?7K&ycd2mSu
https://uataltyps.github.io/?e&2JKZPKhM
https://uataltyps.github.io/?TU3kAxa&1K
https://uataltyps.github.io/?y9x3&jhEGH
https://uataltyps.github.io/?aw&JcFDNSw
https://uataltyps.github.io/?caLY&IDRp5
https://uataltyps.github.io/?BikZ&6V
https://uataltyps.github.io/?wT&2XrwARJ
https://uataltyps.github.io/?&CrAxOL3du
https://uataltyps.github.io/?UW2&NmqNFL
https://uataltyps.github.io/?jACSj0&MEv
https://uataltyps.github.io/?9Ubxo&q8y4
https://uataltyps.github.io/?RofTLQ&hye
https://uataltyps.github.io/?pvU&lR1meG
https://uataltyps.github.io/?d&vn3Z9aTF
https://uataltyps.github.io/?2yHxdo&lVD
https://uataltyps.github.io/?IAePkjEr&i
https://uataltyps.github.io/?9yoDseZf5&
https://uataltyps.github.io/?i1P&KX1
https://uataltyps.github.io/?FQgI560&UA
https://uataltyps.github.io/?hr&kXLfj7d
https://uataltyps.github.io/?wP&2ZDI7fm
https://uataltyps.github.io/?KBsHc62&a1
https://uataltyps.github.io/?6uJm2&rVH1
https://uataltyps.github.io/?Z6&32Fp
https://uataltyps.github.io/?x6wa546e&e
https://uataltyps.github.io/?93hcYj&3HI
https://uataltyps.github.io/?tQ&1Nvz
https://uataltyps.github.io/?2ZkpW0x&da